/*--------------------------------*- C++ -*----------------------------------*/

// File was created with PyBlocker.py

FoamFile
{
    version     2.0;
    format      ascii;
    class       dictionary;
    object      blockMeshDict;
}
// * * * * * * * * * * * * * * * * * * * * * * * * * * * * * * * * * * * * * //

convertToMeters 1;

vertices
(
	(0.001 0 0)
	(0.002 0 0)
	(0.002 0.02 0)
	(0.001 0.02 0)
	(0.001 0 0.001)
	(0.002 0 0.001)
	(0.002 0.02 0.001)
	(0.001 0.02 0.001)
	(0 0 0)
	(0 0.02 0)
	(0.000585786437627 0 0.00141421356237)
	(0.000585786437627 0.02 0.00141421356237)
	(0.002 0 0.002)
	(0.002 0.02 0.002)
	(0.000234750571508 0.0 0.00105814264731)
	(0.000941857352694 0.0 0.00176524942849)
	(0.000941857352694 0.0005 0.00176524942849)
	(0.000234750571508 0.0005 0.00105814264731)
	(-0.00281335136524 0.0 0.00410624458405)
	(-0.00210624458405 0.0 0.00481335136524)
	(-0.00210624458405 0.0005 0.00481335136524)
	(-0.00281335136524 0.0005 0.00410624458405)
	(0.000234750571508 0.00666666666667 0.00105814264731)
	(0.000941857352694 0.00666666666667 0.00176524942849)
	(0.000941857352694 0.00766666666667 0.00176524942849)
	(0.000234750571508 0.00766666666667 0.00105814264731)
	(-0.00281335136524 0.00666666666667 0.00410624458405)
	(-0.00210624458405 0.00666666666667 0.00481335136524)
	(-0.00210624458405 0.00766666666667 0.00481335136524)
	(-0.00281335136524 0.00766666666667 0.00410624458405)
	(0.000234750571508 0.0133333333333 0.00105814264731)
	(0.000941857352694 0.0133333333333 0.00176524942849)
	(0.000941857352694 0.0143333333333 0.00176524942849)
	(0.000234750571508 0.0143333333333 0.00105814264731)
	(-0.00281335136524 0.0133333333333 0.00410624458405)
	(-0.00210624458405 0.0133333333333 0.00481335136524)
	(-0.00210624458405 0.0143333333333 0.00481335136524)
	(-0.00281335136524 0.0143333333333 0.00410624458405)
	(0.04 0 0)
	(0.04 0.02 0)
	(0.04 0 0.001)
	(0.04 0.02 0.001)
	(0.04 0 0.002)
	(0.04 0.02 0.002)
);


blocks
(
	hex (0 1 2 3 4 5 6 7) (8 200 15) simpleGrading (1 1 5) 
	hex (8 0 3 9 10 4 7 11) (5 200 15) simpleGrading (1 1 5) 
	hex (4 5 6 7 10 12 13 11) (8 200 5) simpleGrading (1 1 1) 
	hex (14 15 16 17 18 19 20 21) (9 5 20) simpleGrading (1 1 5) 
	hex (22 23 24 25 26 27 28 29) (9 9 20) simpleGrading (1 1 5) 
	hex (30 31 32 33 34 35 36 37) (9 9 20) simpleGrading (1 1 5) 
	hex (1 38 39 2 5 40 41 6) (50 200 15) simpleGrading (8 1 5) 
	hex (5 40 41 6 12 42 43 13) (50 200 5) simpleGrading (8 1 1) 
);


edges
(
	arc 8 10 (0.000152240934977 0 0.00076536686473)
	arc 9 11 (0.000152240934977 0.02 0.00076536686473)
	arc 10 12 (0.00123463313527 0 0.00184775906502)
	arc 13 11 (0.00123463313527 0.02 0.00184775906502)
	arc 14 15 (0.000550431098568 0.0 0.00144956890143)
	arc 16 17 (0.000550431098568 0.0005 0.00144956890143)
	arc 22 23 (0.000550431098568 0.00666666666667 0.00144956890143)
	arc 24 25 (0.000550431098568 0.00766666666667 0.00144956890143)
	arc 30 31 (0.000550431098568 0.0133333333333 0.00144956890143)
	arc 32 33 (0.000550431098568 0.0143333333333 0.00144956890143)

);


boundary
(
	symm
	{
		type symmetryPlane;
		faces
		(
			(0 1 5 4)
			(8 0 4 10)
			(4 5 12 10)
			(14 15 19 18)
			(1 38 40 5)
			(5 40 42 12)
		);
	}
	inlet
	{
		type patch;
		faces
		(
			(18 19 20 21)
			(26 27 28 29)
			(34 35 36 37)
		);
	}
	tempWall
	{
		type wall;
		faces
		(
			(14 17 16 15)
			(22 25 24 23)
			(30 33 32 31)
		);
	}
	inletConnector
	{
		type patch;
		faces
		(
		);
	}
	inletWall
	{
		type wall;
		faces
		(
			(8 10 11 9)
			(10 12 13 11)
		);
	}
	membrane
	{
		type patch;
		faces
		(
			(0 3 2 1)
			(8 9 3 0)
			(1 2 39 38)
		);
	}
	chamberWall
	{
		type wall;
		faces
		(
			(3 7 6 2)
			(9 11 7 3)
			(7 11 13 6)
			(14 18 21 17)
			(20 19 15 16)
			(17 21 20 16)
			(22 23 27 26)
			(22 26 29 25)
			(28 27 23 24)
			(25 29 28 24)
			(30 31 35 34)
			(30 34 37 33)
			(36 35 31 32)
			(33 37 36 32)
			(41 40 38 39)
			(2 6 41 39)
			(43 42 40 41)
			(6 13 43 41)
			(12 42 43 13)
		);
	}

);


mergePatchPairs
(
	(inletWall tempWall)
);
