/*--------------------------------*- C++ -*----------------------------------*\
| =========                 |                                                 |
| \\      /  F ield         | OpenFOAM: The Open Source CFD Toolbox           |
|  \\    /   O peration     | Version:  1.7.0                                 |
|   \\  /    A nd           | Web:      www.OpenFOAM.com                      |
|    \\/     M anipulation  |                                                 |
\*---------------------------------------------------------------------------*/
FoamFile
{
    version     2.0;
    format      ascii;
    class       dictionary;
    location    "constant";
    object      transportProperties;
}
// * * * * * * * * * * * * * * * * * * * * * * * * * * * * * * * * * * * * * //

transportModel  Newtonian;

// Newtonian transport model:

// Solute-dependent viscosity
nu	         nu               [ 0 2 -1 0 0 0 0 ]    0.894e-6;
pi_mACoeff	    pi_mACoeff	    [ 0 0 0 0 0 0 0 ]	    80510000.0;
mu0		    mu0 		    [ 1 -1 -1 0 0 0 0 ]   0.00089;
mu_mACoeff	    mu_mACoeff 	    [ 0 0 0 0 0 0 0 ]   1.63; 
D_AB_Min	    D_AB_Min 	    [ 0 2 -1 0 0 0 0 ]	    1.45e-09;
D_AB_Coeff	    D_AB_Coeff 	    [ 0 2 -1 0 0 0 0 ]	    1.61e-09;
D_AB_mACoeff   D_AB_mACoeff     [ 0 0 0 0 0 0 0 ]     14.0; 
rho0		    rho0		    [ 1 -3 0 0 0 0 0 ]	    997.1;
rho_mACoeff	    rho_mACoeff	    [ 0 0 0 0 0 0 0 ]	    0.696;

// Membrane Parameters
A   		1.61111e-12;
B   		8.33333e-08;
K          150666.0;

// ************************************************************************* //
