/*--------------------------------*- C++ -*----------------------------------*\
| =========                 |                                                 |
| \\      /  F ield         | OpenFOAM: The Open Source CFD Toolbox           |
|  \\    /   O peration     | Version:  dev                                   |
|   \\  /    A nd           | Web:      www.OpenFOAM.org                      |
|    \\/     M anipulation  |                                                 |
\*---------------------------------------------------------------------------*/
FoamFile
{
    version     2.0;
    format      ascii;
    class       dictionary;
    object      topoSetDict;
}

// * * * * * * * * * * * * * * * * * * * * * * * * * * * * * * * * * * * * * //

actions
(
    {
        name    f0;
        type    faceSet;
        action  new;
        source  patchToFace;
        sourceInfo
        {
            name "Inside";
        }
    }
);

 // All faces of patch
//    source patchToFace;
//    sourceInfo
//    {
//        name ".*Wall";      // Name of patch or patch group,
//                            // (regular expressions allowed)
//    }
//

// ************************************************************************* //
