/*--------------------------------*- C++ -*----------------------------------*\
| =========                 |                                                 |
| \\      /  F ield         | OpenFOAM: The Open Source CFD Toolbox           |
|  \\    /   O peration     | Version:  1.7.0                                 |
|   \\  /    A nd           | Web:      www.OpenFOAM.com                      |
|    \\/     M anipulation  |                                                 |
\*---------------------------------------------------------------------------*/
FoamFile
{
    version     2.0;
    format      ascii;
    class       dictionary;
    location    "system";
    object      fvSolution;
}
// * * * * * * * * * * * * * * * * * * * * * * * * * * * * * * * * * * * * * //

solvers
{
    p
    {
        solver          GAMG;
        tolerance       1e-7;
        relTol          0.1;
        smoother        GaussSeidel;
        cacheAgglomeration true;
        nCellsInCoarsestLevel 30;
        agglomerator    faceAreaPair;
        mergeLevels     1;
    }

    rho
    {
        solver          GAMG;
        tolerance       1e-8;
        relTol          0.01;
        smoother        GaussSeidel;
        cacheAgglomeration true;
        nCellsInCoarsestLevel 30;
        agglomerator    faceAreaPair;
        mergeLevels     1;
    }

    rP
    {
        solver          GAMG;
        tolerance       1e-8;
        relTol          0.01;
        smoother        GaussSeidel;
        cacheAgglomeration true;
        nCellsInCoarsestLevel 30;
        agglomerator    faceAreaPair;
        mergeLevels     1;
    }

    U
    {
        solver          PBiCG;
        preconditioner  DILU;
        tolerance       1e-6;
        relTol          0;
    }

    UFinal
    {
        solver          PBiCG;
        preconditioner  DILU;
        tolerance       1e-7;
        relTol          0;
    }

    pFinal
    {
        solver          GAMG;
        tolerance       1e-7;
        relTol          0.1;
        smoother        GaussSeidel;
        cacheAgglomeration true;
        nCellsInCoarsestLevel 30;
        agglomerator    faceAreaPair;
        mergeLevels     1;
    }

    m_A
    {
        solver          GAMG;
        tolerance       1e-12;
        relTol          0;
        smoother        GaussSeidel;
        cacheAgglomeration true;
        nCellsInCoarsestLevel 30;
        agglomerator    faceAreaPair;
        mergeLevels     1;
    }

}

PISO
{
    nOuterCorrectors 		2;
    nCorrectors      		1;
    nNonOrthogonalCorrectors 8;
    momentumPredictor		no;
}

potentialFlow
{
    nNonOrthogonalCorrectors 40;
    momentumPredictor		yes;
}

SIMPLE
{
    nNonOrthogonalCorrectors 8;
    residualControl
    {
        p               1e-4;
        m_A             1e-9;
    }
}

relaxationFactors
{
    fields
    {
        p               1;
    }
    equations
    {
        p               1;
        U               0.5;
        m_A             0.9;
    }
}